data_[CoreMOF]DITYEM_clean

_audit_creation_method RASPA-1.0
_audit_creation_date 2025-1-26
_audit_author_name ''

_cell_length_a    5.2788
_cell_length_b    15.467
_cell_length_c    8.295
_cell_angle_alpha 90
_cell_angle_beta  92.552
_cell_angle_gamma 90
_cell_volume      676.592

_symmetry_cell_setting          triclinic
_symmetry_space_group_name_Hall 'P 1'
_symmetry_space_group_name_H-M  'P 1'
_symmetry_Int_Tables_number     1

_symmetry_equiv_pos_as_xyz 'x,y,z'

loop_
_atom_site_label
_atom_site_type_symbol
_atom_site_fract_x
_atom_site_fract_y
_atom_site_fract_z
_atom_site_charge
N1       N      0.907400000000     0.396480000000     0.555600000000    -0.194038   
N2       N      0.262700000000     0.216070000000     0.868500000000    -0.234      
C1       C      0.856200000000     0.312310000000     0.583000000000     0.093773   
C2       C      0.297700000000     0.301120000000     0.849300000000     0.0818763  
H1       H      0.188200000000     0.338800000000     0.899000000000    -0.0263788  
C3       C      0.486900000000     0.336090000000     0.760100000000    -0.119539   
H2       H      0.501100000000     0.395700000000     0.749700000000     0.0253724  
C4       C      0.656300000000     0.281870000000     0.685700000000     0.0232242  
C5       C      0.622700000000     0.192900000000     0.706500000000    -0.14494    
H3       H      0.731700000000     0.153800000000     0.660100000000     0.0653127  
C6       C      0.427200000000     0.163780000000     0.796100000000     0.0755208  
H4       H      0.407200000000     0.104400000000     0.807400000000    -0.025702   
N3       N      0.092600000000     0.396480000000     0.444400000000    -0.192775   
N4       N      0.737300000000     0.216070000000     0.131500000000    -0.234144   
C7       C      0.143800000000     0.312310000000     0.417000000000     0.0930942  
C8       C      0.702300000000     0.301120000000     0.150700000000     0.082467   
H5       H      0.811800000000     0.338800000000     0.101000000000    -0.0272573  
C9       C      0.513100000000     0.336090000000     0.239900000000    -0.120675   
H6       H      0.498900000000     0.395700000000     0.250300000000     0.025341   
C10      C      0.343700000000     0.281870000000     0.314300000000     0.0237056  
C11      C      0.377300000000     0.192900000000     0.293500000000    -0.145274   
H7       H      0.268300000000     0.153800000000     0.339900000000     0.0653966  
C12      C      0.572800000000     0.163780000000     0.203900000000     0.0756798  
H8       H      0.592800000000     0.104400000000     0.192600000000    -0.0257953  
N5       N      0.092600000000     0.603520000000     0.444400000000    -0.192783   
N6       N      0.737300000000     0.783930000000     0.131500000000    -0.232687   
C13      C      0.143800000000     0.687690000000     0.417000000000     0.093282   
C14      C      0.702300000000     0.698880000000     0.150700000000     0.0820736  
H9       H      0.811800000000     0.661200000000     0.101000000000    -0.0267382  
C15      C      0.513100000000     0.663910000000     0.239900000000    -0.12015    
H10      H      0.498900000000     0.604300000000     0.250300000000     0.0252024  
C16      C      0.343700000000     0.718130000000     0.314300000000     0.0235017  
C17      C      0.377300000000     0.807100000000     0.293500000000    -0.144421   
H11      H      0.268300000000     0.846200000000     0.339900000000     0.0649662  
C18      C      0.572800000000     0.836220000000     0.203900000000     0.0743146  
H12      H      0.592800000000     0.895600000000     0.192600000000    -0.0262674  
N7       N      0.907400000000     0.603520000000     0.555600000000    -0.194046   
N8       N      0.262700000000     0.783930000000     0.868500000000    -0.232543   
C19      C      0.856200000000     0.687690000000     0.583000000000     0.0939609  
C20      C      0.297700000000     0.698880000000     0.849300000000     0.0814829  
H13      H      0.188200000000     0.661200000000     0.899000000000    -0.0258597  
C21      C      0.486900000000     0.663910000000     0.760100000000    -0.119013   
H14      H      0.501100000000     0.604300000000     0.749700000000     0.0252338  
C22      C      0.656300000000     0.718130000000     0.685700000000     0.0230203  
C23      C      0.622700000000     0.807100000000     0.706500000000    -0.144087   
H15      H      0.731700000000     0.846200000000     0.660100000000     0.0648823  
C24      C      0.427200000000     0.836220000000     0.796100000000     0.0741556  
H16      H      0.407200000000     0.895600000000     0.807400000000    -0.0261742  
Cu1      Cu     0.906890000000     0.500000000000     0.703940000000     0.596547   
N9       N      0.973400000000     0.500000000000     0.931800000000    -0.19379    
C25      C      0.026600000000     0.500000000000     0.068200000000    -0.138963   
Cu2      Cu     0.093110000000     0.500000000000     0.296060000000     0.577604   
Cu3      Cu     0.000000000000     0.161600000000     0.000000000000     0.66017    
N10      N      0.000000000000     0.037600000000     0.000000000000    -0.193377   
C26      C      0.000000000000     0.962400000000     0.000000000000    -0.141109   
Cu4      Cu     0.000000000000     0.838400000000     0.000000000000     0.643549   
N11      N      0.000000000000     0.258230000000     0.500000000000    -0.146099   
N12      N      0.000000000000     0.741770000000     0.500000000000    -0.146085   


