data_[CoreMOF]DITYEM_clean

_audit_creation_method RASPA-1.0
_audit_creation_date 2025-1-26
_audit_author_name ''

_cell_length_a    5.2788
_cell_length_b    15.467
_cell_length_c    8.295
_cell_angle_alpha 90
_cell_angle_beta  92.552
_cell_angle_gamma 90
_cell_volume      676.592

_symmetry_cell_setting          triclinic
_symmetry_space_group_name_Hall 'P 1'
_symmetry_space_group_name_H-M  'P 1'
_symmetry_Int_Tables_number     1

_symmetry_equiv_pos_as_xyz 'x,y,z'

loop_
_atom_site_label
_atom_site_type_symbol
_atom_site_fract_x
_atom_site_fract_y
_atom_site_fract_z
_atom_site_charge
N1       N      0.907400000000     0.396480000000     0.555600000000     0.0230203  
N2       N      0.262700000000     0.216070000000     0.868500000000    -0.144087   
C1       C      0.856200000000     0.312310000000     0.583000000000     0.0648823  
C2       C      0.297700000000     0.301120000000     0.849300000000     0.0741556  
H1       H      0.188200000000     0.338800000000     0.899000000000    -0.0261742  
C3       C      0.486900000000     0.336090000000     0.760100000000     0.596547   
H2       H      0.501100000000     0.395700000000     0.749700000000    -0.19379    
C4       C      0.656300000000     0.281870000000     0.685700000000    -0.138963   
C5       C      0.622700000000     0.192900000000     0.706500000000     0.577604   
H3       H      0.731700000000     0.153800000000     0.660100000000     0.66017    
C6       C      0.427200000000     0.163780000000     0.796100000000    -0.193377   
H4       H      0.407200000000     0.104400000000     0.807400000000    -0.141109   
N3       N      0.092600000000     0.396480000000     0.444400000000     0.643549   
N4       N      0.737300000000     0.216070000000     0.131500000000    -0.146099   
C7       C      0.143800000000     0.312310000000     0.417000000000    -0.146085   
C8       C      0.702300000000     0.301120000000     0.150700000000     0          
H5       H      0.811800000000     0.338800000000     0.101000000000     0          
C9       C      0.513100000000     0.336090000000     0.239900000000     0          
H6       H      0.498900000000     0.395700000000     0.250300000000     0          
C10      C      0.343700000000     0.281870000000     0.314300000000     0          
C11      C      0.377300000000     0.192900000000     0.293500000000     0          
H7       H      0.268300000000     0.153800000000     0.339900000000     0          
C12      C      0.572800000000     0.163780000000     0.203900000000     0          
H8       H      0.592800000000     0.104400000000     0.192600000000     0          
N5       N      0.092600000000     0.603520000000     0.444400000000     0          
N6       N      0.737300000000     0.783930000000     0.131500000000     0          
C13      C      0.143800000000     0.687690000000     0.417000000000     0          
C14      C      0.702300000000     0.698880000000     0.150700000000     0          
H9       H      0.811800000000     0.661200000000     0.101000000000     0          
C15      C      0.513100000000     0.663910000000     0.239900000000     0          
H10      H      0.498900000000     0.604300000000     0.250300000000     0          
C16      C      0.343700000000     0.718130000000     0.314300000000     0          
C17      C      0.377300000000     0.807100000000     0.293500000000     0          
H11      H      0.268300000000     0.846200000000     0.339900000000     0          
C18      C      0.572800000000     0.836220000000     0.203900000000     0          
H12      H      0.592800000000     0.895600000000     0.192600000000     0          
N7       N      0.907400000000     0.603520000000     0.555600000000     0          
N8       N      0.262700000000     0.783930000000     0.868500000000     0          
C19      C      0.856200000000     0.687690000000     0.583000000000     0          
C20      C      0.297700000000     0.698880000000     0.849300000000     0          
H13      H      0.188200000000     0.661200000000     0.899000000000     0          
C21      C      0.486900000000     0.663910000000     0.760100000000     0          
H14      H      0.501100000000     0.604300000000     0.749700000000     0          
C22      C      0.656300000000     0.718130000000     0.685700000000     0          
C23      C      0.622700000000     0.807100000000     0.706500000000     0          
H15      H      0.731700000000     0.846200000000     0.660100000000     0          
C24      C      0.427200000000     0.836220000000     0.796100000000     0          
H16      H      0.407200000000     0.895600000000     0.807400000000     0          
Cu1      Cu     0.906890000000     0.500000000000     0.703940000000     0          
N9       N      0.973400000000     0.500000000000     0.931800000000     0          
C25      C      0.026600000000     0.500000000000     0.068200000000     0          
Cu2      Cu     0.093110000000     0.500000000000     0.296060000000     0          
Cu3      Cu     0.000000000000     0.161600000000     0.000000000000     0          
N10      N      0.000000000000     0.037600000000     0.000000000000     0          
C26      C      0.000000000000     0.962400000000     0.000000000000     0          
Cu4      Cu     0.000000000000     0.838400000000     0.000000000000     0          
N11      N      0.000000000000     0.258230000000     0.500000000000     0          
N12      N      0.000000000000     0.741770000000     0.500000000000     0          


