data_[CoreMOF]QAVPIO_clean

_audit_creation_method RASPA-1.0
_audit_creation_date 2025-1-26
_audit_author_name ''

_cell_length_a    5.0919
_cell_length_b    9.2528
_cell_length_c    12.74
_cell_angle_alpha 73.82
_cell_angle_beta  84.58
_cell_angle_gamma 74.13
_cell_volume      554.381

_symmetry_cell_setting          triclinic
_symmetry_space_group_name_Hall 'P 1'
_symmetry_space_group_name_H-M  'P 1'
_symmetry_Int_Tables_number     1

_symmetry_equiv_pos_as_xyz 'x,y,z'

loop_
_atom_site_label
_atom_site_type_symbol
_atom_site_fract_x
_atom_site_fract_y
_atom_site_fract_z
_atom_site_charge
Al1      Al     0.962100000000     0.710200000000     0.154080000000     7.58647    
Al2      Al     0.284800000000     0.032900000000     0.402220000000     6.93664    
Al3      Al     0.782700000000     0.277700000000     0.120200000000     7.40838    
Al4      Al     0.461800000000     0.958400000000     0.867650000000     7.09943    
P1       P      0.872300000000     0.049100000000     0.971860000000     1.79475    
P2       P      0.361100000000     0.100900000000     0.618100000000     1.13874    
P3       P      0.210100000000     0.350700000000     0.235630000000     1.67566    
P4       P      0.530900000000     0.637800000000     0.035840000000     1.66998    
P5       P      0.878700000000     0.940900000000     0.298060000000     1.81563    
O1       O      0.338100000000     0.006200000000     0.539900000000    -1.89792    
O2       O      0.413600000000     0.984600000000     0.731100000000    -1.97444    
O3       O      0.049200000000     0.929000000000     0.395700000000    -2.00251    
O4       O      0.700700000000     0.058500000000     0.876200000000    -2.04814    
O5       O      0.655200000000     0.662400000000     0.130700000000    -2.13842    
O6       O      0.167700000000     0.045600000000     0.931600000000    -2.11809    
O7       O      0.569600000000     0.760500000000     0.927700000000    -2.11023    
O8       O      0.085000000000     0.327300000000     0.139200000000    -2.14275    
O9       O      0.583100000000     0.956900000000     0.338500000000    -2.15238    
O10      O      0.163800000000     0.232700000000     0.342500000000    -2.03168    
O11      O      0.516000000000     0.328600000000     0.215800000000    -2.04489    
O12      O      0.225800000000     0.656300000000     0.058600000000    -2.07072    
O13      O      0.852000000000     0.909200000000     0.062000000000    -2.09521    
O14      O      0.909700000000     0.079400000000     0.206100000000    -2.10095    
O15      O      0.568300000000     0.192100000000     0.584900000000    -0.521114   
O16      O      0.978800000000     0.787900000000     0.265500000000    -2.04959    
O17      O      0.080900000000     0.511700000000     0.254200000000    -1.69216    
O18      O      0.664300000000     0.478300000000     0.015200000000    -1.59651    
O19      O      0.762300000000     0.203400000000     0.004200000000    -1.90707    
O20      O      0.070800000000     0.220400000000     0.621600000000    -0.430891   


