data_[CoreMOF]NAHHAI_clean

_audit_creation_method RASPA-1.0
_audit_creation_date 2025-1-26
_audit_author_name ''

_cell_length_a    10.4622
_cell_length_b    7.187
_cell_length_c    13.4544
_cell_angle_alpha 90
_cell_angle_beta  112.694
_cell_angle_gamma 90
_cell_volume      933.337

_symmetry_cell_setting          triclinic
_symmetry_space_group_name_Hall 'P 1'
_symmetry_space_group_name_H-M  'P 1'
_symmetry_Int_Tables_number     1

_symmetry_equiv_pos_as_xyz 'x,y,z'

loop_
_atom_site_label
_atom_site_type_symbol
_atom_site_fract_x
_atom_site_fract_y
_atom_site_fract_z
_atom_site_charge
N1       N      0.135500000000     0.096400000000     0.260600000000     0.124445   
N2       N      0.096400000000     0.157200000000     0.161800000000     0.391832   
N3       N      0.864500000000     0.596400000000     0.739400000000     0.391872   
N4       N      0.903600000000     0.657200000000     0.838200000000     0          
N5       N      0.864500000000     0.903600000000     0.739400000000     0          
N6       N      0.903600000000     0.842800000000     0.838200000000     0          
N7       N      0.135500000000     0.403600000000     0.260600000000     0          
N8       N      0.096400000000     0.342800000000     0.161800000000     0          
Cd1      Cd     0.856300000000     0.250000000000     0.725120000000     0          
O1       O      0.635000000000     0.250000000000     0.622600000000     0          
O2       O      0.605600000000     0.250000000000     0.776700000000     0          
O3       O      0.114300000000     0.250000000000     0.762700000000     0          
O4       O      0.943600000000     0.250000000000     0.601500000000     0          
O5       O      0.902500000000     0.250000000000     0.902400000000     0          
C1       C      0.564000000000     0.250000000000     0.679100000000     0          
C2       C      0.407800000000     0.250000000000     0.614500000000     0          
C3       C      0.359400000000     0.250000000000     0.505200000000     0          
H1       H      0.421500000000     0.250000000000     0.471000000000     0          
C4       C      0.214300000000     0.250000000000     0.442700000000     0          
C5       C      0.126400000000     0.250000000000     0.493000000000     0          
H2       H      0.031300000000     0.250000000000     0.453500000000     0          
C6       C      0.179600000000     0.250000000000     0.608000000000     0          
C7       C      0.314200000000     0.250000000000     0.667800000000     0          
H3       H      0.346400000000     0.250000000000     0.742600000000     0          
C8       C      0.071100000000     0.250000000000     0.659000000000     0          
C9       C      0.163900000000     0.250000000000     0.322600000000     0          
Cd2      Cd     0.143700000000     0.750000000000     0.274880000000     0          
O6       O      0.365000000000     0.750000000000     0.377400000000     0          
O7       O      0.394400000000     0.750000000000     0.223300000000     0          
O8       O      0.885700000000     0.750000000000     0.237300000000     0          
O9       O      0.056400000000     0.750000000000     0.398500000000     0          
O10      O      0.097500000000     0.750000000000     0.097600000000     0          
C10      C      0.436000000000     0.750000000000     0.320900000000     0          
C11      C      0.592200000000     0.750000000000     0.385500000000     0          
C12      C      0.640600000000     0.750000000000     0.494800000000     0          
H4       H      0.578500000000     0.750000000000     0.529000000000     0          
C13      C      0.785700000000     0.750000000000     0.557300000000     0          
C14      C      0.873600000000     0.750000000000     0.507000000000     0          
H5       H      0.968700000000     0.750000000000     0.546500000000     0          
C15      C      0.820400000000     0.750000000000     0.392000000000     0          
C16      C      0.685800000000     0.750000000000     0.332200000000     0          
H6       H      0.653600000000     0.750000000000     0.257400000000     0          
C17      C      0.928900000000     0.750000000000     0.341000000000     0          
C18      C      0.836100000000     0.750000000000     0.677400000000     0          
Cd3      Cd     0.000000000000     0.000000000000     0.000000000000     0          
Cd4      Cd     0.000000000000     0.500000000000     0.000000000000     0          


