data_[CoreMOF]c6cc00589f_c6cc00589f2_clean

_audit_creation_method RASPA-1.0
_audit_creation_date 2025-1-26
_audit_author_name ''

_cell_length_a    17.1168
_cell_length_b    17.1168
_cell_length_c    17.1168
_cell_angle_alpha 90
_cell_angle_beta  90
_cell_angle_gamma 90
_cell_volume      5014.96

_symmetry_cell_setting          triclinic
_symmetry_space_group_name_Hall 'P 1'
_symmetry_space_group_name_H-M  'P 1'
_symmetry_Int_Tables_number     1

_symmetry_equiv_pos_as_xyz 'x,y,z'

loop_
_atom_site_label
_atom_site_type_symbol
_atom_site_fract_x
_atom_site_fract_y
_atom_site_fract_z
_atom_site_charge
N1       N      0.015400000000     0.407100000000     0.317600000000    -0.264306   
N2       N      0.082000000000     0.365300000000     0.313000000000    -0.0987341  
H1       H      0.881900000000     0.370100000000     0.444800000000     0.328911   
H2       H      0.898600000000     0.454900000000     0.414500000000     0.30763    
H3       H      0.862200000000     0.392500000000     0.358200000000     0.321039   
N3       N      0.515400000000     0.907100000000     0.817600000000    -0.264196   
N4       N      0.582000000000     0.865300000000     0.813000000000    -0.0987252  
H4       H      0.381900000000     0.870100000000     0.944800000000     0.328917   
H5       H      0.398600000000     0.954900000000     0.914500000000     0.307656   
H6       H      0.362200000000     0.892500000000     0.858200000000     0.321037   
N5       N      0.984600000000     0.592900000000     0.317600000000    -0.264045   
N6       N      0.918000000000     0.634700000000     0.313000000000    -0.0987354  
H7       H      0.118100000000     0.629900000000     0.444800000000     0.32868    
H8       H      0.101400000000     0.545100000000     0.414500000000     0.307396   
H9       H      0.137800000000     0.607500000000     0.358200000000     0.320813   
N7       N      0.484600000000     0.092900000000     0.817600000000    -0.264196   
N8       N      0.418000000000     0.134700000000     0.813000000000    -0.0987442  
H10      H      0.618100000000     0.129900000000     0.944800000000     0.328815   
H11      H      0.601400000000     0.045100000000     0.914500000000     0.307511   
H12      H      0.637800000000     0.107500000000     0.858200000000     0.320931   
N9       N      0.984600000000     0.407100000000     0.682400000000    -0.264046   
N10      N      0.918000000000     0.365300000000     0.687000000000    -0.098739   
H13      H      0.118100000000     0.370100000000     0.555200000000     0.328682   
H14      H      0.101400000000     0.454900000000     0.585500000000     0.307395   
H15      H      0.137800000000     0.392500000000     0.641800000000     0.320812   
N11      N      0.484600000000     0.907100000000     0.182400000000    -0.264161   
N12      N      0.418000000000     0.865300000000     0.187000000000    -0.0987311  
H16      H      0.618100000000     0.870100000000     0.055200000000     0.328793   
H17      H      0.601400000000     0.954900000000     0.085500000000     0.307531   
H18      H      0.637800000000     0.892500000000     0.141800000000     0.320935   
N13      N      0.015400000000     0.592900000000     0.682400000000    -0.264304   
N14      N      0.082000000000     0.634700000000     0.687000000000    -0.0987391  
H19      H      0.881900000000     0.629900000000     0.555200000000     0.328904   
H20      H      0.898600000000     0.545100000000     0.585500000000     0.307624   
H21      H      0.862200000000     0.607500000000     0.641800000000     0.321032   
N15      N      0.515400000000     0.092900000000     0.182400000000    -0.264155   
N16      N      0.582000000000     0.134700000000     0.187000000000    -0.0987461  
H22      H      0.381900000000     0.129900000000     0.055200000000     0.328668   
H23      H      0.398600000000     0.045100000000     0.085500000000     0.307363   
H24      H      0.362200000000     0.107500000000     0.141800000000     0.320808   
N17      N      0.317600000000     0.015400000000     0.407100000000    -0.264306   
N18      N      0.313000000000     0.082000000000     0.365300000000    -0.0987341  
H25      H      0.444800000000     0.881900000000     0.370100000000     0.328911   
H26      H      0.414500000000     0.898600000000     0.454900000000     0.30763    
H27      H      0.358200000000     0.862200000000     0.392500000000     0.321039   
N19      N      0.817600000000     0.515400000000     0.907100000000    -0.264196   
N20      N      0.813000000000     0.582000000000     0.865300000000    -0.0987252  
H28      H      0.944800000000     0.381900000000     0.870100000000     0.328917   
H29      H      0.914500000000     0.398600000000     0.954900000000     0.307656   
H30      H      0.858200000000     0.362200000000     0.892500000000     0.321037   
N21      N      0.317600000000     0.984600000000     0.592900000000    -0.264045   
N22      N      0.313000000000     0.918000000000     0.634700000000    -0.0987354  
H31      H      0.444800000000     0.118100000000     0.629900000000     0.32868    
H32      H      0.414500000000     0.101400000000     0.545100000000     0.307396   
H33      H      0.358200000000     0.137800000000     0.607500000000     0.320813   
N23      N      0.817600000000     0.484600000000     0.092900000000    -0.264196   
N24      N      0.813000000000     0.418000000000     0.134700000000    -0.0987442  
H34      H      0.944800000000     0.618100000000     0.129900000000     0.328815   
H35      H      0.914500000000     0.601400000000     0.045100000000     0.307511   
H36      H      0.858200000000     0.637800000000     0.107500000000     0.320931   
N25      N      0.682400000000     0.984600000000     0.407100000000    -0.264046   
N26      N      0.687000000000     0.918000000000     0.365300000000    -0.098739   
H37      H      0.555200000000     0.118100000000     0.370100000000     0.328682   
H38      H      0.585500000000     0.101400000000     0.454900000000     0.307395   
H39      H      0.641800000000     0.137800000000     0.392500000000     0.320812   
N27      N      0.182400000000     0.484600000000     0.907100000000    -0.264161   
N28      N      0.187000000000     0.418000000000     0.865300000000    -0.0987311  
H40      H      0.055200000000     0.618100000000     0.870100000000     0.328793   
H41      H      0.085500000000     0.601400000000     0.954900000000     0.307531   
H42      H      0.141800000000     0.637800000000     0.892500000000     0.320935   
N29      N      0.682400000000     0.015400000000     0.592900000000    -0.264304   
N30      N      0.687000000000     0.082000000000     0.634700000000    -0.0987391  
H43      H      0.555200000000     0.881900000000     0.629900000000     0.328904   
H44      H      0.585500000000     0.898600000000     0.545100000000     0.307624   
H45      H      0.641800000000     0.862200000000     0.607500000000     0.321032   
N31      N      0.182400000000     0.515400000000     0.092900000000    -0.264155   
N32      N      0.187000000000     0.582000000000     0.134700000000    -0.0987461  
H46      H      0.055200000000     0.381900000000     0.129900000000     0.328668   
H47      H      0.085500000000     0.398600000000     0.045100000000     0.307363   
H48      H      0.141800000000     0.362200000000     0.107500000000     0.320808   
N33      N      0.407100000000     0.317600000000     0.015400000000    -0.264306   
N34      N      0.365300000000     0.313000000000     0.082000000000    -0.0987341  
H49      H      0.370100000000     0.444800000000     0.881900000000     0.328911   
H50      H      0.454900000000     0.414500000000     0.898600000000     0.30763    
H51      H      0.392500000000     0.358200000000     0.862200000000     0.321039   
N35      N      0.907100000000     0.817600000000     0.515400000000    -0.264196   
N36      N      0.865300000000     0.813000000000     0.582000000000    -0.0987252  
H52      H      0.870100000000     0.944800000000     0.381900000000     0.328917   
H53      H      0.954900000000     0.914500000000     0.398600000000     0.307656   
H54      H      0.892500000000     0.858200000000     0.362200000000     0.321037   
N37      N      0.592900000000     0.317600000000     0.984600000000    -0.264045   
N38      N      0.634700000000     0.313000000000     0.918000000000    -0.0987354  
H55      H      0.629900000000     0.444800000000     0.118100000000     0.32868    
H56      H      0.545100000000     0.414500000000     0.101400000000     0.307396   
H57      H      0.607500000000     0.358200000000     0.137800000000     0.320813   
N39      N      0.092900000000     0.817600000000     0.484600000000    -0.264196   
N40      N      0.134700000000     0.813000000000     0.418000000000    -0.0987442  
H58      H      0.129900000000     0.944800000000     0.618100000000     0.328815   
H59      H      0.045100000000     0.914500000000     0.601400000000     0.307511   
H60      H      0.107500000000     0.858200000000     0.637800000000     0.320931   
N41      N      0.407100000000     0.682400000000     0.984600000000    -0.264046   
N42      N      0.365300000000     0.687000000000     0.918000000000    -0.098739   
H61      H      0.370100000000     0.555200000000     0.118100000000     0.328682   
H62      H      0.454900000000     0.585500000000     0.101400000000     0.307395   
H63      H      0.392500000000     0.641800000000     0.137800000000     0.320812   
N43      N      0.907100000000     0.182400000000     0.484600000000    -0.264161   
N44      N      0.865300000000     0.187000000000     0.418000000000    -0.0987311  
H64      H      0.870100000000     0.055200000000     0.618100000000     0.328793   
H65      H      0.954900000000     0.085500000000     0.601400000000     0.307531   
H66      H      0.892500000000     0.141800000000     0.637800000000     0.320935   
N45      N      0.592900000000     0.682400000000     0.015400000000    -0.264304   
N46      N      0.634700000000     0.687000000000     0.082000000000    -0.0987391  
H67      H      0.629900000000     0.555200000000     0.881900000000     0.328904   
H68      H      0.545100000000     0.585500000000     0.898600000000     0.307624   
H69      H      0.607500000000     0.641800000000     0.862200000000     0.321032   
N47      N      0.092900000000     0.182400000000     0.515400000000    -0.264155   
N48      N      0.134700000000     0.187000000000     0.582000000000    -0.0987461  
H70      H      0.129900000000     0.055200000000     0.381900000000     0.328668   
H71      H      0.045100000000     0.085500000000     0.398600000000     0.307363   
H72      H      0.107500000000     0.141800000000     0.362200000000     0.320808   
N49      N      0.407100000000     0.015400000000     0.317600000000    -0.264306   
N50      N      0.365300000000     0.082000000000     0.313000000000    -0.0987341  
H73      H      0.370100000000     0.881900000000     0.444800000000     0.328911   
H74      H      0.454900000000     0.898600000000     0.414500000000     0.30763    
H75      H      0.392500000000     0.862200000000     0.358200000000     0.321039   
N51      N      0.907100000000     0.515400000000     0.817600000000    -0.264196   
N52      N      0.865300000000     0.582000000000     0.813000000000    -0.0987252  
H76      H      0.870100000000     0.381900000000     0.944800000000     0.328917   
H77      H      0.954900000000     0.398600000000     0.914500000000     0.307656   
H78      H      0.892500000000     0.362200000000     0.858200000000     0.321037   
N53      N      0.592900000000     0.984600000000     0.317600000000    -0.264045   
N54      N      0.634700000000     0.918000000000     0.313000000000    -0.0987354  
H79      H      0.629900000000     0.118100000000     0.444800000000     0.32868    
H80      H      0.545100000000     0.101400000000     0.414500000000     0.307396   
H81      H      0.607500000000     0.137800000000     0.358200000000     0.320813   
N55      N      0.092900000000     0.484600000000     0.817600000000    -0.264196   
N56      N      0.134700000000     0.418000000000     0.813000000000    -0.0987442  
H82      H      0.129900000000     0.618100000000     0.944800000000     0.328815   
H83      H      0.045100000000     0.601400000000     0.914500000000     0.307511   
H84      H      0.107500000000     0.637800000000     0.858200000000     0.320931   
N57      N      0.407100000000     0.984600000000     0.682400000000    -0.264046   
N58      N      0.365300000000     0.918000000000     0.687000000000    -0.098739   
H85      H      0.370100000000     0.118100000000     0.555200000000     0.328682   
H86      H      0.454900000000     0.101400000000     0.585500000000     0.307395   
H87      H      0.392500000000     0.137800000000     0.641800000000     0.320812   
N59      N      0.907100000000     0.484600000000     0.182400000000    -0.264161   
N60      N      0.865300000000     0.418000000000     0.187000000000    -0.0987311  
H88      H      0.870100000000     0.618100000000     0.055200000000     0.328793   
H89      H      0.954900000000     0.601400000000     0.085500000000     0.307531   
H90      H      0.892500000000     0.637800000000     0.141800000000     0.320935   
N61      N      0.592900000000     0.015400000000     0.682400000000    -0.264304   
N62      N      0.634700000000     0.082000000000     0.687000000000    -0.0987391  
H91      H      0.629900000000     0.881900000000     0.555200000000     0.328904   
H92      H      0.545100000000     0.898600000000     0.585500000000     0.307624   
H93      H      0.607500000000     0.862200000000     0.641800000000     0.321032   
N63      N      0.092900000000     0.515400000000     0.182400000000    -0.264155   
N64      N      0.134700000000     0.582000000000     0.187000000000    -0.0987461  
H94      H      0.129900000000     0.381900000000     0.055200000000     0.328668   
H95      H      0.045100000000     0.398600000000     0.085500000000     0.307363   
H96      H      0.107500000000     0.362200000000     0.141800000000     0.320808   
N65      N      0.015400000000     0.317600000000     0.407100000000    -0.264306   
N66      N      0.082000000000     0.313000000000     0.365300000000    -0.0987341  
H97      H      0.881900000000     0.444800000000     0.370100000000     0.328911   
H98      H      0.898600000000     0.414500000000     0.454900000000     0.30763    
H99      H      0.862200000000     0.358200000000     0.392500000000     0.321039   
N67      N      0.515400000000     0.817600000000     0.907100000000    -0.264196   
N68      N      0.582000000000     0.813000000000     0.865300000000    -0.0987252  
H100     H      0.381900000000     0.944800000000     0.870100000000     0.328917   
H101     H      0.398600000000     0.914500000000     0.954900000000     0.307656   
H102     H      0.362200000000     0.858200000000     0.892500000000     0.321037   
N69      N      0.984600000000     0.317600000000     0.592900000000    -0.264045   
N70      N      0.918000000000     0.313000000000     0.634700000000    -0.0987354  
H103     H      0.118100000000     0.444800000000     0.629900000000     0.32868    
H104     H      0.101400000000     0.414500000000     0.545100000000     0.307396   
H105     H      0.137800000000     0.358200000000     0.607500000000     0.320813   
N71      N      0.484600000000     0.817600000000     0.092900000000    -0.264196   
N72      N      0.418000000000     0.813000000000     0.134700000000    -0.0987442  
H106     H      0.618100000000     0.944800000000     0.129900000000     0.328815   
H107     H      0.601400000000     0.914500000000     0.045100000000     0.307511   
H108     H      0.637800000000     0.858200000000     0.107500000000     0.320931   
N73      N      0.984600000000     0.682400000000     0.407100000000    -0.264046   
N74      N      0.918000000000     0.687000000000     0.365300000000    -0.098739   
H109     H      0.118100000000     0.555200000000     0.370100000000     0.328682   
H110     H      0.101400000000     0.585500000000     0.454900000000     0.307395   
H111     H      0.137800000000     0.641800000000     0.392500000000     0.320812   
N75      N      0.484600000000     0.182400000000     0.907100000000    -0.264161   
N76      N      0.418000000000     0.187000000000     0.865300000000    -0.0987311  
H112     H      0.618100000000     0.055200000000     0.870100000000     0.328793   
H113     H      0.601400000000     0.085500000000     0.954900000000     0.307531   
H114     H      0.637800000000     0.141800000000     0.892500000000     0.320935   
N77      N      0.015400000000     0.682400000000     0.592900000000    -0.264304   
N78      N      0.082000000000     0.687000000000     0.634700000000    -0.0987391  
H115     H      0.881900000000     0.555200000000     0.629900000000     0.328904   
H116     H      0.898600000000     0.585500000000     0.545100000000     0.307624   
H117     H      0.862200000000     0.641800000000     0.607500000000     0.321032   
N79      N      0.515400000000     0.182400000000     0.092900000000    -0.264155   
N80      N      0.582000000000     0.187000000000     0.134700000000    -0.0987461  
H118     H      0.381900000000     0.055200000000     0.129900000000     0.328668   
H119     H      0.398600000000     0.085500000000     0.045100000000     0.307363   
H120     H      0.362200000000     0.141800000000     0.107500000000     0.320808   
N81      N      0.317600000000     0.407100000000     0.015400000000    -0.264306   
N82      N      0.313000000000     0.365300000000     0.082000000000    -0.0987341  
H121     H      0.444800000000     0.370100000000     0.881900000000     0.328911   
H122     H      0.414500000000     0.454900000000     0.898600000000     0.30763    
H123     H      0.358200000000     0.392500000000     0.862200000000     0.321039   
N83      N      0.817600000000     0.907100000000     0.515400000000    -0.264196   
N84      N      0.813000000000     0.865300000000     0.582000000000    -0.0987252  
H124     H      0.944800000000     0.870100000000     0.381900000000     0.328917   
H125     H      0.914500000000     0.954900000000     0.398600000000     0.307656   
H126     H      0.858200000000     0.892500000000     0.362200000000     0.321037   
N85      N      0.317600000000     0.592900000000     0.984600000000    -0.264045   
N86      N      0.313000000000     0.634700000000     0.918000000000    -0.0987354  
H127     H      0.444800000000     0.629900000000     0.118100000000     0.32868    
H128     H      0.414500000000     0.545100000000     0.101400000000     0.307396   
H129     H      0.358200000000     0.607500000000     0.137800000000     0.320813   
N87      N      0.817600000000     0.092900000000     0.484600000000    -0.264196   
N88      N      0.813000000000     0.134700000000     0.418000000000    -0.0987442  
H130     H      0.944800000000     0.129900000000     0.618100000000     0.328815   
H131     H      0.914500000000     0.045100000000     0.601400000000     0.307511   
H132     H      0.858200000000     0.107500000000     0.637800000000     0.320931   
N89      N      0.682400000000     0.407100000000     0.984600000000    -0.264046   
N90      N      0.687000000000     0.365300000000     0.918000000000    -0.098739   
H133     H      0.555200000000     0.370100000000     0.118100000000     0.328682   
H134     H      0.585500000000     0.454900000000     0.101400000000     0.307395   
H135     H      0.641800000000     0.392500000000     0.137800000000     0.320812   
N91      N      0.182400000000     0.907100000000     0.484600000000    -0.264161   
N92      N      0.187000000000     0.865300000000     0.418000000000    -0.0987311  
H136     H      0.055200000000     0.870100000000     0.618100000000     0.328793   
H137     H      0.085500000000     0.954900000000     0.601400000000     0.307531   
H138     H      0.141800000000     0.892500000000     0.637800000000     0.320935   
N93      N      0.682400000000     0.592900000000     0.015400000000    -0.264304   
N94      N      0.687000000000     0.634700000000     0.082000000000    -0.0987391  
H139     H      0.555200000000     0.629900000000     0.881900000000     0.328904   
H140     H      0.585500000000     0.545100000000     0.898600000000     0.307624   
H141     H      0.641800000000     0.607500000000     0.862200000000     0.321032   
N95      N      0.182400000000     0.092900000000     0.515400000000    -0.264155   
N96      N      0.187000000000     0.134700000000     0.582000000000    -0.0987461  
H142     H      0.055200000000     0.129900000000     0.381900000000     0.328668   
H143     H      0.085500000000     0.045100000000     0.398600000000     0.307363   
H144     H      0.141800000000     0.107500000000     0.362200000000     0.320808   
Zn1      Zn     0.000000000000     0.500000000000     0.250000000000     0.308058   
Zn2      Zn     0.000000000000     0.500000000000     0.750000000000     0.308059   
Zn3      Zn     0.250000000000     0.000000000000     0.500000000000     0.308058   
Zn4      Zn     0.750000000000     0.000000000000     0.500000000000     0.308059   
Zn5      Zn     0.500000000000     0.250000000000     0.000000000000     0.308058   
Zn6      Zn     0.500000000000     0.750000000000     0.000000000000     0.308059   
Zn7      Zn     0.500000000000     0.000000000000     0.250000000000     0.308058   
Zn8      Zn     0.500000000000     0.000000000000     0.750000000000     0.308059   
Zn9      Zn     0.000000000000     0.250000000000     0.500000000000     0.308058   
Zn10     Zn     0.000000000000     0.750000000000     0.500000000000     0.308059   
Zn11     Zn     0.250000000000     0.500000000000     0.000000000000     0.308058   
Zn12     Zn     0.750000000000     0.500000000000     0.000000000000     0.308059   
C1       C      0.978500000000     0.375900000000     0.375900000000     0.590416   
C2       C      0.898100000000     0.400600000000     0.400600000000    -1.9334     
C3       C      0.478500000000     0.875900000000     0.875900000000     0.590235   
C4       C      0.398100000000     0.900600000000     0.900600000000    -1.93336    
C5       C      0.021500000000     0.624100000000     0.375900000000     0.589684   
C6       C      0.101900000000     0.599400000000     0.400600000000    -1.93205    
C7       C      0.521500000000     0.124100000000     0.875900000000     0.59006    
C8       C      0.601900000000     0.099400000000     0.900600000000    -1.93276    
C9       C      0.021500000000     0.375900000000     0.624100000000     0.589684   
C10      C      0.101900000000     0.400600000000     0.599400000000    -1.93205    
C11      C      0.521500000000     0.875900000000     0.124100000000     0.59006    
C12      C      0.601900000000     0.900600000000     0.099400000000    -1.93276    
C13      C      0.978500000000     0.624100000000     0.624100000000     0.590409   
C14      C      0.898100000000     0.599400000000     0.599400000000    -1.93337    
C15      C      0.478500000000     0.124100000000     0.124100000000     0.589855   
C16      C      0.398100000000     0.099400000000     0.099400000000    -1.93206    
C17      C      0.375900000000     0.978500000000     0.375900000000     0.590416   
C18      C      0.400600000000     0.898100000000     0.400600000000    -1.9334     
C19      C      0.875900000000     0.478500000000     0.875900000000     0.590235   
C20      C      0.900600000000     0.398100000000     0.900600000000    -1.93336    
C21      C      0.375900000000     0.021500000000     0.624100000000     0.589684   
C22      C      0.400600000000     0.101900000000     0.599400000000    -1.93205    
C23      C      0.875900000000     0.521500000000     0.124100000000     0.59006    
C24      C      0.900600000000     0.601900000000     0.099400000000    -1.93276    
C25      C      0.624100000000     0.021500000000     0.375900000000     0.589684   
C26      C      0.599400000000     0.101900000000     0.400600000000    -1.93205    
C27      C      0.124100000000     0.521500000000     0.875900000000     0.59006    
C28      C      0.099400000000     0.601900000000     0.900600000000    -1.93276    
C29      C      0.624100000000     0.978500000000     0.624100000000     0.590409   
C30      C      0.599400000000     0.898100000000     0.599400000000    -1.93337    
C31      C      0.124100000000     0.478500000000     0.124100000000     0.589855   
C32      C      0.099400000000     0.398100000000     0.099400000000    -1.93206    
C33      C      0.375900000000     0.375900000000     0.978500000000     0.590416   
C34      C      0.400600000000     0.400600000000     0.898100000000    -1.9334     
C35      C      0.875900000000     0.875900000000     0.478500000000     0.590235   
C36      C      0.900600000000     0.900600000000     0.398100000000    -1.93336    
C37      C      0.624100000000     0.375900000000     0.021500000000     0.589684   
C38      C      0.599400000000     0.400600000000     0.101900000000    -1.93205    
C39      C      0.124100000000     0.875900000000     0.521500000000     0.59006    
C40      C      0.099400000000     0.900600000000     0.601900000000    -1.93276    
C41      C      0.375900000000     0.624100000000     0.021500000000     0.589684   
C42      C      0.400600000000     0.599400000000     0.101900000000    -1.93205    
C43      C      0.875900000000     0.124100000000     0.521500000000     0.59006    
C44      C      0.900600000000     0.099400000000     0.601900000000    -1.93276    
C45      C      0.624100000000     0.624100000000     0.978500000000     0.590409   
C46      C      0.599400000000     0.599400000000     0.898100000000    -1.93337    
C47      C      0.124100000000     0.124100000000     0.478500000000     0.589855   
C48      C      0.099400000000     0.099400000000     0.398100000000    -1.93206    


