data_[CoreMOF]c6cc00589f_c6cc00589f2_clean

_audit_creation_method RASPA-1.0
_audit_creation_date 2025-1-26
_audit_author_name ''

_cell_length_a    17.1168
_cell_length_b    17.1168
_cell_length_c    17.1168
_cell_angle_alpha 90
_cell_angle_beta  90
_cell_angle_gamma 90
_cell_volume      5014.96

_symmetry_cell_setting          triclinic
_symmetry_space_group_name_Hall 'P 1'
_symmetry_space_group_name_H-M  'P 1'
_symmetry_Int_Tables_number     1

_symmetry_equiv_pos_as_xyz 'x,y,z'

loop_
_atom_site_label
_atom_site_type_symbol
_atom_site_fract_x
_atom_site_fract_y
_atom_site_fract_z
_atom_site_charge
N1       N      0.015400000000     0.407100000000     0.317600000000     0.30763    
N2       N      0.082000000000     0.365300000000     0.313000000000     0.321039   
H1       H      0.881900000000     0.370100000000     0.444800000000    -0.264196   
H2       H      0.898600000000     0.454900000000     0.414500000000    -0.0987252  
H3       H      0.862200000000     0.392500000000     0.358200000000     0.328917   
N3       N      0.515400000000     0.907100000000     0.817600000000     0.307656   
N4       N      0.582000000000     0.865300000000     0.813000000000     0.321037   
H4       H      0.381900000000     0.870100000000     0.944800000000    -0.264045   
H5       H      0.398600000000     0.954900000000     0.914500000000    -0.0987354  
H6       H      0.362200000000     0.892500000000     0.858200000000     0.32868    
N5       N      0.984600000000     0.592900000000     0.317600000000     0.307396   
N6       N      0.918000000000     0.634700000000     0.313000000000     0.320813   
H7       H      0.118100000000     0.629900000000     0.444800000000    -0.264196   
H8       H      0.101400000000     0.545100000000     0.414500000000    -0.0987442  
H9       H      0.137800000000     0.607500000000     0.358200000000     0.328815   
N7       N      0.484600000000     0.092900000000     0.817600000000     0.307511   
N8       N      0.418000000000     0.134700000000     0.813000000000     0.320931   
H10      H      0.618100000000     0.129900000000     0.944800000000    -0.264046   
H11      H      0.601400000000     0.045100000000     0.914500000000    -0.098739   
H12      H      0.637800000000     0.107500000000     0.858200000000     0.328682   
N9       N      0.984600000000     0.407100000000     0.682400000000     0.307395   
N10      N      0.918000000000     0.365300000000     0.687000000000     0.320812   
H13      H      0.118100000000     0.370100000000     0.555200000000    -0.264161   
H14      H      0.101400000000     0.454900000000     0.585500000000    -0.0987311  
H15      H      0.137800000000     0.392500000000     0.641800000000     0.328793   
N11      N      0.484600000000     0.907100000000     0.182400000000     0.307531   
N12      N      0.418000000000     0.865300000000     0.187000000000     0.320935   
H16      H      0.618100000000     0.870100000000     0.055200000000    -0.264304   
H17      H      0.601400000000     0.954900000000     0.085500000000    -0.0987391  
H18      H      0.637800000000     0.892500000000     0.141800000000     0.328904   
N13      N      0.015400000000     0.592900000000     0.682400000000     0.307624   
N14      N      0.082000000000     0.634700000000     0.687000000000     0.321032   
H19      H      0.881900000000     0.629900000000     0.555200000000    -0.264155   
H20      H      0.898600000000     0.545100000000     0.585500000000    -0.0987461  
H21      H      0.862200000000     0.607500000000     0.641800000000     0.328668   
N15      N      0.515400000000     0.092900000000     0.182400000000     0.307363   
N16      N      0.582000000000     0.134700000000     0.187000000000     0.320808   
H22      H      0.381900000000     0.129900000000     0.055200000000    -0.264306   
H23      H      0.398600000000     0.045100000000     0.085500000000    -0.0987341  
H24      H      0.362200000000     0.107500000000     0.141800000000     0.328911   
N17      N      0.317600000000     0.015400000000     0.407100000000     0.30763    
N18      N      0.313000000000     0.082000000000     0.365300000000     0.321039   
H25      H      0.444800000000     0.881900000000     0.370100000000    -0.264196   
H26      H      0.414500000000     0.898600000000     0.454900000000    -0.0987252  
H27      H      0.358200000000     0.862200000000     0.392500000000     0.328917   
N19      N      0.817600000000     0.515400000000     0.907100000000     0.307656   
N20      N      0.813000000000     0.582000000000     0.865300000000     0.321037   
H28      H      0.944800000000     0.381900000000     0.870100000000    -0.264045   
H29      H      0.914500000000     0.398600000000     0.954900000000    -0.0987354  
H30      H      0.858200000000     0.362200000000     0.892500000000     0.32868    
N21      N      0.317600000000     0.984600000000     0.592900000000     0.307396   
N22      N      0.313000000000     0.918000000000     0.634700000000     0.320813   
H31      H      0.444800000000     0.118100000000     0.629900000000    -0.264196   
H32      H      0.414500000000     0.101400000000     0.545100000000    -0.0987442  
H33      H      0.358200000000     0.137800000000     0.607500000000     0.328815   
N23      N      0.817600000000     0.484600000000     0.092900000000     0.307511   
N24      N      0.813000000000     0.418000000000     0.134700000000     0.320931   
H34      H      0.944800000000     0.618100000000     0.129900000000    -0.264046   
H35      H      0.914500000000     0.601400000000     0.045100000000    -0.098739   
H36      H      0.858200000000     0.637800000000     0.107500000000     0.328682   
N25      N      0.682400000000     0.984600000000     0.407100000000     0.307395   
N26      N      0.687000000000     0.918000000000     0.365300000000     0.320812   
H37      H      0.555200000000     0.118100000000     0.370100000000    -0.264161   
H38      H      0.585500000000     0.101400000000     0.454900000000    -0.0987311  
H39      H      0.641800000000     0.137800000000     0.392500000000     0.328793   
N27      N      0.182400000000     0.484600000000     0.907100000000     0.307531   
N28      N      0.187000000000     0.418000000000     0.865300000000     0.320935   
H40      H      0.055200000000     0.618100000000     0.870100000000    -0.264304   
H41      H      0.085500000000     0.601400000000     0.954900000000    -0.0987391  
H42      H      0.141800000000     0.637800000000     0.892500000000     0.328904   
N29      N      0.682400000000     0.015400000000     0.592900000000     0.307624   
N30      N      0.687000000000     0.082000000000     0.634700000000     0.321032   
H43      H      0.555200000000     0.881900000000     0.629900000000    -0.264155   
H44      H      0.585500000000     0.898600000000     0.545100000000    -0.0987461  
H45      H      0.641800000000     0.862200000000     0.607500000000     0.328668   
N31      N      0.182400000000     0.515400000000     0.092900000000     0.307363   
N32      N      0.187000000000     0.582000000000     0.134700000000     0.320808   
H46      H      0.055200000000     0.381900000000     0.129900000000    -0.264306   
H47      H      0.085500000000     0.398600000000     0.045100000000    -0.0987341  
H48      H      0.141800000000     0.362200000000     0.107500000000     0.328911   
N33      N      0.407100000000     0.317600000000     0.015400000000     0.30763    
N34      N      0.365300000000     0.313000000000     0.082000000000     0.321039   
H49      H      0.370100000000     0.444800000000     0.881900000000    -0.264196   
H50      H      0.454900000000     0.414500000000     0.898600000000    -0.0987252  
H51      H      0.392500000000     0.358200000000     0.862200000000     0.328917   
N35      N      0.907100000000     0.817600000000     0.515400000000     0.307656   
N36      N      0.865300000000     0.813000000000     0.582000000000     0.321037   
H52      H      0.870100000000     0.944800000000     0.381900000000    -0.264045   
H53      H      0.954900000000     0.914500000000     0.398600000000    -0.0987354  
H54      H      0.892500000000     0.858200000000     0.362200000000     0.32868    
N37      N      0.592900000000     0.317600000000     0.984600000000     0.307396   
N38      N      0.634700000000     0.313000000000     0.918000000000     0.320813   
H55      H      0.629900000000     0.444800000000     0.118100000000    -0.264196   
H56      H      0.545100000000     0.414500000000     0.101400000000    -0.0987442  
H57      H      0.607500000000     0.358200000000     0.137800000000     0.328815   
N39      N      0.092900000000     0.817600000000     0.484600000000     0.307511   
N40      N      0.134700000000     0.813000000000     0.418000000000     0.320931   
H58      H      0.129900000000     0.944800000000     0.618100000000    -0.264046   
H59      H      0.045100000000     0.914500000000     0.601400000000    -0.098739   
H60      H      0.107500000000     0.858200000000     0.637800000000     0.328682   
N41      N      0.407100000000     0.682400000000     0.984600000000     0.307395   
N42      N      0.365300000000     0.687000000000     0.918000000000     0.320812   
H61      H      0.370100000000     0.555200000000     0.118100000000    -0.264161   
H62      H      0.454900000000     0.585500000000     0.101400000000    -0.0987311  
H63      H      0.392500000000     0.641800000000     0.137800000000     0.328793   
N43      N      0.907100000000     0.182400000000     0.484600000000     0.307531   
N44      N      0.865300000000     0.187000000000     0.418000000000     0.320935   
H64      H      0.870100000000     0.055200000000     0.618100000000    -0.264304   
H65      H      0.954900000000     0.085500000000     0.601400000000    -0.0987391  
H66      H      0.892500000000     0.141800000000     0.637800000000     0.328904   
N45      N      0.592900000000     0.682400000000     0.015400000000     0.307624   
N46      N      0.634700000000     0.687000000000     0.082000000000     0.321032   
H67      H      0.629900000000     0.555200000000     0.881900000000    -0.264155   
H68      H      0.545100000000     0.585500000000     0.898600000000    -0.0987461  
H69      H      0.607500000000     0.641800000000     0.862200000000     0.328668   
N47      N      0.092900000000     0.182400000000     0.515400000000     0.307363   
N48      N      0.134700000000     0.187000000000     0.582000000000     0.320808   
H70      H      0.129900000000     0.055200000000     0.381900000000    -0.264306   
H71      H      0.045100000000     0.085500000000     0.398600000000    -0.0987341  
H72      H      0.107500000000     0.141800000000     0.362200000000     0.328911   
N49      N      0.407100000000     0.015400000000     0.317600000000     0.30763    
N50      N      0.365300000000     0.082000000000     0.313000000000     0.321039   
H73      H      0.370100000000     0.881900000000     0.444800000000    -0.264196   
H74      H      0.454900000000     0.898600000000     0.414500000000    -0.0987252  
H75      H      0.392500000000     0.862200000000     0.358200000000     0.328917   
N51      N      0.907100000000     0.515400000000     0.817600000000     0.307656   
N52      N      0.865300000000     0.582000000000     0.813000000000     0.321037   
H76      H      0.870100000000     0.381900000000     0.944800000000    -0.264045   
H77      H      0.954900000000     0.398600000000     0.914500000000    -0.0987354  
H78      H      0.892500000000     0.362200000000     0.858200000000     0.32868    
N53      N      0.592900000000     0.984600000000     0.317600000000     0.307396   
N54      N      0.634700000000     0.918000000000     0.313000000000     0.320813   
H79      H      0.629900000000     0.118100000000     0.444800000000    -0.264196   
H80      H      0.545100000000     0.101400000000     0.414500000000    -0.0987442  
H81      H      0.607500000000     0.137800000000     0.358200000000     0.328815   
N55      N      0.092900000000     0.484600000000     0.817600000000     0.307511   
N56      N      0.134700000000     0.418000000000     0.813000000000     0.320931   
H82      H      0.129900000000     0.618100000000     0.944800000000    -0.264046   
H83      H      0.045100000000     0.601400000000     0.914500000000    -0.098739   
H84      H      0.107500000000     0.637800000000     0.858200000000     0.328682   
N57      N      0.407100000000     0.984600000000     0.682400000000     0.307395   
N58      N      0.365300000000     0.918000000000     0.687000000000     0.320812   
H85      H      0.370100000000     0.118100000000     0.555200000000    -0.264161   
H86      H      0.454900000000     0.101400000000     0.585500000000    -0.0987311  
H87      H      0.392500000000     0.137800000000     0.641800000000     0.328793   
N59      N      0.907100000000     0.484600000000     0.182400000000     0.307531   
N60      N      0.865300000000     0.418000000000     0.187000000000     0.320935   
H88      H      0.870100000000     0.618100000000     0.055200000000    -0.264304   
H89      H      0.954900000000     0.601400000000     0.085500000000    -0.0987391  
H90      H      0.892500000000     0.637800000000     0.141800000000     0.328904   
N61      N      0.592900000000     0.015400000000     0.682400000000     0.307624   
N62      N      0.634700000000     0.082000000000     0.687000000000     0.321032   
H91      H      0.629900000000     0.881900000000     0.555200000000    -0.264155   
H92      H      0.545100000000     0.898600000000     0.585500000000    -0.0987461  
H93      H      0.607500000000     0.862200000000     0.641800000000     0.328668   
N63      N      0.092900000000     0.515400000000     0.182400000000     0.307363   
N64      N      0.134700000000     0.582000000000     0.187000000000     0.320808   
H94      H      0.129900000000     0.381900000000     0.055200000000    -0.264306   
H95      H      0.045100000000     0.398600000000     0.085500000000    -0.0987341  
H96      H      0.107500000000     0.362200000000     0.141800000000     0.328911   
N65      N      0.015400000000     0.317600000000     0.407100000000     0.30763    
N66      N      0.082000000000     0.313000000000     0.365300000000     0.321039   
H97      H      0.881900000000     0.444800000000     0.370100000000    -0.264196   
H98      H      0.898600000000     0.414500000000     0.454900000000    -0.0987252  
H99      H      0.862200000000     0.358200000000     0.392500000000     0.328917   
N67      N      0.515400000000     0.817600000000     0.907100000000     0.307656   
N68      N      0.582000000000     0.813000000000     0.865300000000     0.321037   
H100     H      0.381900000000     0.944800000000     0.870100000000    -0.264045   
H101     H      0.398600000000     0.914500000000     0.954900000000    -0.0987354  
H102     H      0.362200000000     0.858200000000     0.892500000000     0.32868    
N69      N      0.984600000000     0.317600000000     0.592900000000     0.307396   
N70      N      0.918000000000     0.313000000000     0.634700000000     0.320813   
H103     H      0.118100000000     0.444800000000     0.629900000000    -0.264196   
H104     H      0.101400000000     0.414500000000     0.545100000000    -0.0987442  
H105     H      0.137800000000     0.358200000000     0.607500000000     0.328815   
N71      N      0.484600000000     0.817600000000     0.092900000000     0.307511   
N72      N      0.418000000000     0.813000000000     0.134700000000     0.320931   
H106     H      0.618100000000     0.944800000000     0.129900000000    -0.264046   
H107     H      0.601400000000     0.914500000000     0.045100000000    -0.098739   
H108     H      0.637800000000     0.858200000000     0.107500000000     0.328682   
N73      N      0.984600000000     0.682400000000     0.407100000000     0.307395   
N74      N      0.918000000000     0.687000000000     0.365300000000     0.320812   
H109     H      0.118100000000     0.555200000000     0.370100000000    -0.264161   
H110     H      0.101400000000     0.585500000000     0.454900000000    -0.0987311  
H111     H      0.137800000000     0.641800000000     0.392500000000     0.328793   
N75      N      0.484600000000     0.182400000000     0.907100000000     0.307531   
N76      N      0.418000000000     0.187000000000     0.865300000000     0.320935   
H112     H      0.618100000000     0.055200000000     0.870100000000    -0.264304   
H113     H      0.601400000000     0.085500000000     0.954900000000    -0.0987391  
H114     H      0.637800000000     0.141800000000     0.892500000000     0.328904   
N77      N      0.015400000000     0.682400000000     0.592900000000     0.307624   
N78      N      0.082000000000     0.687000000000     0.634700000000     0.321032   
H115     H      0.881900000000     0.555200000000     0.629900000000    -0.264155   
H116     H      0.898600000000     0.585500000000     0.545100000000    -0.0987461  
H117     H      0.862200000000     0.641800000000     0.607500000000     0.328668   
N79      N      0.515400000000     0.182400000000     0.092900000000     0.307363   
N80      N      0.582000000000     0.187000000000     0.134700000000     0.320808   
H118     H      0.381900000000     0.055200000000     0.129900000000     0.308058   
H119     H      0.398600000000     0.085500000000     0.045100000000     0.308059   
H120     H      0.362200000000     0.141800000000     0.107500000000     0.308058   
N81      N      0.317600000000     0.407100000000     0.015400000000     0.308059   
N82      N      0.313000000000     0.365300000000     0.082000000000     0.308058   
H121     H      0.444800000000     0.370100000000     0.881900000000     0.308059   
H122     H      0.414500000000     0.454900000000     0.898600000000     0.308058   
H123     H      0.358200000000     0.392500000000     0.862200000000     0.308059   
N83      N      0.817600000000     0.907100000000     0.515400000000     0.308058   
N84      N      0.813000000000     0.865300000000     0.582000000000     0.308059   
H124     H      0.944800000000     0.870100000000     0.381900000000     0.308058   
H125     H      0.914500000000     0.954900000000     0.398600000000     0.308059   
H126     H      0.858200000000     0.892500000000     0.362200000000     0.590416   
N85      N      0.317600000000     0.592900000000     0.984600000000    -1.9334     
N86      N      0.313000000000     0.634700000000     0.918000000000     0.590235   
H127     H      0.444800000000     0.629900000000     0.118100000000    -1.93336    
H128     H      0.414500000000     0.545100000000     0.101400000000     0.589684   
H129     H      0.358200000000     0.607500000000     0.137800000000    -1.93205    
N87      N      0.817600000000     0.092900000000     0.484600000000     0.59006    
N88      N      0.813000000000     0.134700000000     0.418000000000    -1.93276    
H130     H      0.944800000000     0.129900000000     0.618100000000     0.589684   
H131     H      0.914500000000     0.045100000000     0.601400000000    -1.93205    
H132     H      0.858200000000     0.107500000000     0.637800000000     0.59006    
N89      N      0.682400000000     0.407100000000     0.984600000000    -1.93276    
N90      N      0.687000000000     0.365300000000     0.918000000000     0.590409   
H133     H      0.555200000000     0.370100000000     0.118100000000    -1.93337    
H134     H      0.585500000000     0.454900000000     0.101400000000     0.589855   
H135     H      0.641800000000     0.392500000000     0.137800000000    -1.93206    
N91      N      0.182400000000     0.907100000000     0.484600000000     0.590416   
N92      N      0.187000000000     0.865300000000     0.418000000000    -1.9334     
H136     H      0.055200000000     0.870100000000     0.618100000000     0.590235   
H137     H      0.085500000000     0.954900000000     0.601400000000    -1.93336    
H138     H      0.141800000000     0.892500000000     0.637800000000     0.589684   
N93      N      0.682400000000     0.592900000000     0.015400000000    -1.93205    
N94      N      0.687000000000     0.634700000000     0.082000000000     0.59006    
H139     H      0.555200000000     0.629900000000     0.881900000000    -1.93276    
H140     H      0.585500000000     0.545100000000     0.898600000000     0.589684   
H141     H      0.641800000000     0.607500000000     0.862200000000    -1.93205    
N95      N      0.182400000000     0.092900000000     0.515400000000     0.59006    
N96      N      0.187000000000     0.134700000000     0.582000000000    -1.93276    
H142     H      0.055200000000     0.129900000000     0.381900000000     0.590409   
H143     H      0.085500000000     0.045100000000     0.398600000000    -1.93337    
H144     H      0.141800000000     0.107500000000     0.362200000000     0.589855   
Zn1      Zn     0.000000000000     0.500000000000     0.250000000000    -1.93206    
Zn2      Zn     0.000000000000     0.500000000000     0.750000000000     0.590416   
Zn3      Zn     0.250000000000     0.000000000000     0.500000000000    -1.9334     
Zn4      Zn     0.750000000000     0.000000000000     0.500000000000     0.590235   
Zn5      Zn     0.500000000000     0.250000000000     0.000000000000    -1.93336    
Zn6      Zn     0.500000000000     0.750000000000     0.000000000000     0.589684   
Zn7      Zn     0.500000000000     0.000000000000     0.250000000000    -1.93205    
Zn8      Zn     0.500000000000     0.000000000000     0.750000000000     0.59006    
Zn9      Zn     0.000000000000     0.250000000000     0.500000000000    -1.93276    
Zn10     Zn     0.000000000000     0.750000000000     0.500000000000     0.589684   
Zn11     Zn     0.250000000000     0.500000000000     0.000000000000    -1.93205    
Zn12     Zn     0.750000000000     0.500000000000     0.000000000000     0.59006    
C1       C      0.978500000000     0.375900000000     0.375900000000    -1.93276    
C2       C      0.898100000000     0.400600000000     0.400600000000     0.590409   
C3       C      0.478500000000     0.875900000000     0.875900000000    -1.93337    
C4       C      0.398100000000     0.900600000000     0.900600000000     0.589855   
C5       C      0.021500000000     0.624100000000     0.375900000000    -1.93206    
C6       C      0.101900000000     0.599400000000     0.400600000000     0          
C7       C      0.521500000000     0.124100000000     0.875900000000     0          
C8       C      0.601900000000     0.099400000000     0.900600000000     0          
C9       C      0.021500000000     0.375900000000     0.624100000000     0          
C10      C      0.101900000000     0.400600000000     0.599400000000     0          
C11      C      0.521500000000     0.875900000000     0.124100000000     0          
C12      C      0.601900000000     0.900600000000     0.099400000000     0          
C13      C      0.978500000000     0.624100000000     0.624100000000     0          
C14      C      0.898100000000     0.599400000000     0.599400000000     0          
C15      C      0.478500000000     0.124100000000     0.124100000000     0          
C16      C      0.398100000000     0.099400000000     0.099400000000     0          
C17      C      0.375900000000     0.978500000000     0.375900000000     0          
C18      C      0.400600000000     0.898100000000     0.400600000000     0          
C19      C      0.875900000000     0.478500000000     0.875900000000     0          
C20      C      0.900600000000     0.398100000000     0.900600000000     0          
C21      C      0.375900000000     0.021500000000     0.624100000000     0          
C22      C      0.400600000000     0.101900000000     0.599400000000     0          
C23      C      0.875900000000     0.521500000000     0.124100000000     0          
C24      C      0.900600000000     0.601900000000     0.099400000000     0          
C25      C      0.624100000000     0.021500000000     0.375900000000     0          
C26      C      0.599400000000     0.101900000000     0.400600000000     0          
C27      C      0.124100000000     0.521500000000     0.875900000000     0          
C28      C      0.099400000000     0.601900000000     0.900600000000     0          
C29      C      0.624100000000     0.978500000000     0.624100000000     0          
C30      C      0.599400000000     0.898100000000     0.599400000000     0          
C31      C      0.124100000000     0.478500000000     0.124100000000     0          
C32      C      0.099400000000     0.398100000000     0.099400000000     0          
C33      C      0.375900000000     0.375900000000     0.978500000000     0          
C34      C      0.400600000000     0.400600000000     0.898100000000     0          
C35      C      0.875900000000     0.875900000000     0.478500000000     0          
C36      C      0.900600000000     0.900600000000     0.398100000000     0          
C37      C      0.624100000000     0.375900000000     0.021500000000     0          
C38      C      0.599400000000     0.400600000000     0.101900000000     0          
C39      C      0.124100000000     0.875900000000     0.521500000000     0          
C40      C      0.099400000000     0.900600000000     0.601900000000     0          
C41      C      0.375900000000     0.624100000000     0.021500000000     0          
C42      C      0.400600000000     0.599400000000     0.101900000000     0          
C43      C      0.875900000000     0.124100000000     0.521500000000     0          
C44      C      0.900600000000     0.099400000000     0.601900000000     0          
C45      C      0.624100000000     0.624100000000     0.978500000000     0          
C46      C      0.599400000000     0.599400000000     0.898100000000     0          
C47      C      0.124100000000     0.124100000000     0.478500000000     0          
C48      C      0.099400000000     0.099400000000     0.398100000000     0          


