data_[CoreMOF]XADDEN_manual

_audit_creation_method RASPA-1.0
_audit_creation_date 2025-1-26
_audit_author_name ''

_cell_length_a    18.651
_cell_length_b    18.651
_cell_length_c    18.651
_cell_angle_alpha 60
_cell_angle_beta  60
_cell_angle_gamma 60
_cell_volume      4587.66

_symmetry_cell_setting          triclinic
_symmetry_space_group_name_Hall 'P 1'
_symmetry_space_group_name_H-M  'P 1'
_symmetry_Int_Tables_number     1

_symmetry_equiv_pos_as_xyz 'x,y,z'

loop_
_atom_site_label
_atom_site_type_symbol
_atom_site_fract_x
_atom_site_fract_y
_atom_site_fract_z
_atom_site_charge
Cu1      Cu     0.069860000000     0.500000000000     0.500000000000     0.9662     
Cu2      Cu     0.500000000000     0.069860000000     0.930140000000     0.966206   
Cu3      Cu     0.500000000000     0.930140000000     0.069860000000     0.966206   
Cu4      Cu     0.930140000000     0.500000000000     0.500000000000     0.9662     
Cu5      Cu     0.069860000000     0.500000000000     0.930140000000     0.966199   
Cu6      Cu     0.500000000000     0.930140000000     0.500000000000     0.966206   
Cu7      Cu     0.500000000000     0.069860000000     0.500000000000     0.966206   
Cu8      Cu     0.930140000000     0.500000000000     0.069860000000     0.966199   
Cu9      Cu     0.069860000000     0.930140000000     0.500000000000     0.966196   
Cu10     Cu     0.500000000000     0.500000000000     0.069860000000     0.966208   
Cu11     Cu     0.500000000000     0.500000000000     0.930140000000     0.966208   
Cu12     Cu     0.930140000000     0.069860000000     0.500000000000     0.966196   
H1       H      0.772600000000     0.467400000000     0.772600000000     0.0265291  
H2       H      0.467400000000     0.772600000000     0.987400000000     0.0265296  
H3       H      0.772600000000     0.987400000000     0.772600000000     0.0265257  
H4       H      0.987400000000     0.772600000000     0.467400000000     0.0265176  
H5       H      0.772600000000     0.772600000000     0.987400000000     0.0265284  
H6       H      0.467400000000     0.987400000000     0.772600000000     0.0265273  
H7       H      0.772600000000     0.772600000000     0.467400000000     0.0265292  
H8       H      0.987400000000     0.467400000000     0.772600000000     0.026518   
H9       H      0.772600000000     0.987400000000     0.467400000000     0.0265256  
H10      H      0.467400000000     0.772600000000     0.772600000000     0.0265303  
H11      H      0.772600000000     0.467400000000     0.987400000000     0.0265283  
H12      H      0.987400000000     0.772600000000     0.772600000000     0.0265176  
H13      H      0.532600000000     0.227400000000     0.227400000000     0.0265303  
H14      H      0.227400000000     0.532600000000     0.012600000000     0.0265283  
H15      H      0.012600000000     0.227400000000     0.227400000000     0.0265176  
H16      H      0.227400000000     0.012600000000     0.532600000000     0.0265256  
H17      H      0.227400000000     0.227400000000     0.012600000000     0.0265284  
H18      H      0.012600000000     0.532600000000     0.227400000000     0.026518   
H19      H      0.227400000000     0.227400000000     0.532600000000     0.0265292  
H20      H      0.532600000000     0.012600000000     0.227400000000     0.0265273  
H21      H      0.012600000000     0.227400000000     0.532600000000     0.0265176  
H22      H      0.227400000000     0.532600000000     0.227400000000     0.0265291  
H23      H      0.532600000000     0.227400000000     0.012600000000     0.0265296  
H24      H      0.227400000000     0.012600000000     0.227400000000     0.0265257  
C1       C      0.930900000000     0.474260000000     0.663940000000     0.421289   
C2       C      0.887400000000     0.467120000000     0.758080000000    -0.163803   
C3       C      0.474260000000     0.930900000000     0.930900000000     0.421288   
C4       C      0.467120000000     0.887400000000     0.887400000000    -0.163797   
C5       C      0.663940000000     0.930900000000     0.930900000000     0.421284   
C6       C      0.758080000000     0.887400000000     0.887400000000    -0.163798   
C7       C      0.930900000000     0.663940000000     0.474260000000     0.421286   
C8       C      0.887400000000     0.758080000000     0.467120000000    -0.163802   
C9       C      0.930900000000     0.663940000000     0.930900000000     0.421282   
C10      C      0.887400000000     0.758080000000     0.887400000000    -0.163801   
C11      C      0.474260000000     0.930900000000     0.663940000000     0.421289   
C12      C      0.467120000000     0.887400000000     0.758080000000    -0.163797   
C13      C      0.663940000000     0.930900000000     0.474260000000     0.421287   
C14      C      0.758080000000     0.887400000000     0.467120000000    -0.163799   
C15      C      0.930900000000     0.474260000000     0.930900000000     0.421286   
C16      C      0.887400000000     0.467120000000     0.887400000000    -0.163802   
C17      C      0.930900000000     0.930900000000     0.474260000000     0.421275   
C18      C      0.887400000000     0.887400000000     0.467120000000    -0.163801   
C19      C      0.474260000000     0.663940000000     0.930900000000     0.421289   
C20      C      0.467120000000     0.758080000000     0.887400000000    -0.163796   
C21      C      0.663940000000     0.474260000000     0.930900000000     0.421289   
C22      C      0.758080000000     0.467120000000     0.887400000000    -0.163799   
C23      C      0.930900000000     0.930900000000     0.663940000000     0.421274   
C24      C      0.887400000000     0.887400000000     0.758080000000    -0.1638     
C25      C      0.525740000000     0.069100000000     0.336060000000     0.421289   
C26      C      0.532880000000     0.112600000000     0.241920000000    -0.163797   
C27      C      0.069100000000     0.525740000000     0.069100000000     0.421286   
C28      C      0.112600000000     0.532880000000     0.112600000000    -0.163802   
C29      C      0.069100000000     0.336060000000     0.069100000000     0.421282   
C30      C      0.112600000000     0.241920000000     0.112600000000    -0.163801   
C31      C      0.336060000000     0.069100000000     0.525740000000     0.421287   
C32      C      0.241920000000     0.112600000000     0.532880000000    -0.163799   
C33      C      0.336060000000     0.069100000000     0.069100000000     0.421284   
C34      C      0.241920000000     0.112600000000     0.112600000000    -0.163798   
C35      C      0.069100000000     0.525740000000     0.336060000000     0.421289   
C36      C      0.112600000000     0.532880000000     0.241920000000    -0.163803   
C37      C      0.069100000000     0.336060000000     0.525740000000     0.421286   
C38      C      0.112600000000     0.241920000000     0.532880000000    -0.163802   
C39      C      0.525740000000     0.069100000000     0.069100000000     0.421288   
C40      C      0.532880000000     0.112600000000     0.112600000000    -0.163797   
C41      C      0.069100000000     0.069100000000     0.525740000000     0.421275   
C42      C      0.112600000000     0.112600000000     0.532880000000    -0.163801   
C43      C      0.336060000000     0.525740000000     0.069100000000     0.421289   
C44      C      0.241920000000     0.532880000000     0.112600000000    -0.163799   
C45      C      0.525740000000     0.336060000000     0.069100000000     0.421289   
C46      C      0.532880000000     0.241920000000     0.112600000000    -0.163796   
C47      C      0.069100000000     0.069100000000     0.336060000000     0.421274   
C48      C      0.112600000000     0.112600000000     0.241920000000    -0.1638     
C49      C      0.801500000000     0.467220000000     0.801500000000     0.104103   
C50      C      0.467220000000     0.801500000000     0.929780000000     0.104101   
C51      C      0.801500000000     0.929780000000     0.801500000000     0.1041     
C52      C      0.929780000000     0.801500000000     0.467220000000     0.104102   
C53      C      0.801500000000     0.801500000000     0.929780000000     0.104101   
C54      C      0.467220000000     0.929780000000     0.801500000000     0.104101   
C55      C      0.801500000000     0.801500000000     0.467220000000     0.104102   
C56      C      0.929780000000     0.467220000000     0.801500000000     0.104104   
C57      C      0.801500000000     0.929780000000     0.467220000000     0.104101   
C58      C      0.467220000000     0.801500000000     0.801500000000     0.104101   
C59      C      0.801500000000     0.467220000000     0.929780000000     0.104103   
C60      C      0.929780000000     0.801500000000     0.801500000000     0.104101   
C61      C      0.532780000000     0.198500000000     0.198500000000     0.104101   
C62      C      0.198500000000     0.532780000000     0.070220000000     0.104103   
C63      C      0.070220000000     0.198500000000     0.198500000000     0.104101   
C64      C      0.198500000000     0.070220000000     0.532780000000     0.104101   
C65      C      0.198500000000     0.198500000000     0.070220000000     0.104101   
C66      C      0.070220000000     0.532780000000     0.198500000000     0.104104   
C67      C      0.198500000000     0.198500000000     0.532780000000     0.104102   
C68      C      0.532780000000     0.070220000000     0.198500000000     0.104101   
C69      C      0.070220000000     0.198500000000     0.532780000000     0.104102   
C70      C      0.198500000000     0.532780000000     0.198500000000     0.104103   
C71      C      0.532780000000     0.198500000000     0.070220000000     0.104101   
C72      C      0.198500000000     0.070220000000     0.198500000000     0.1041     
O1       O      0.007400000000     0.478680000000     0.626460000000    -0.435618   
O2       O      0.478680000000     0.007400000000     0.887460000000    -0.435607   
O3       O      0.626460000000     0.887460000000     0.007400000000    -0.435603   
O4       O      0.887460000000     0.626460000000     0.478680000000    -0.435605   
O5       O      0.007400000000     0.626460000000     0.887460000000    -0.435614   
O6       O      0.478680000000     0.887460000000     0.626460000000    -0.435604   
O7       O      0.626460000000     0.007400000000     0.478680000000    -0.435606   
O8       O      0.887460000000     0.478680000000     0.007400000000    -0.435604   
O9       O      0.007400000000     0.887460000000     0.478680000000    -0.435611   
O10      O      0.478680000000     0.626460000000     0.007400000000    -0.435605   
O11      O      0.626460000000     0.478680000000     0.887460000000    -0.435604   
O12      O      0.887460000000     0.007400000000     0.626460000000    -0.435601   
O13      O      0.521320000000     0.992600000000     0.373540000000    -0.435608   
O14      O      0.992600000000     0.521320000000     0.112540000000    -0.435617   
O15      O      0.112540000000     0.373540000000     0.992600000000    -0.435603   
O16      O      0.373540000000     0.112540000000     0.521320000000    -0.435604   
O17      O      0.373540000000     0.992600000000     0.112540000000    -0.435605   
O18      O      0.112540000000     0.521320000000     0.373540000000    -0.435605   
O19      O      0.992600000000     0.373540000000     0.521320000000    -0.435616   
O20      O      0.521320000000     0.112540000000     0.992600000000    -0.435604   
O21      O      0.112540000000     0.992600000000     0.521320000000    -0.435602   
O22      O      0.373540000000     0.521320000000     0.992600000000    -0.435605   
O23      O      0.521320000000     0.373540000000     0.112540000000    -0.435604   
O24      O      0.992600000000     0.112540000000     0.373540000000    -0.43561    
O25      O      0.992600000000     0.521320000000     0.373540000000    -0.435618   
O26      O      0.521320000000     0.992600000000     0.112540000000    -0.435607   
O27      O      0.373540000000     0.112540000000     0.992600000000    -0.435603   
O28      O      0.112540000000     0.373540000000     0.521320000000    -0.435605   
O29      O      0.992600000000     0.373540000000     0.112540000000    -0.435614   
O30      O      0.521320000000     0.112540000000     0.373540000000    -0.435604   
O31      O      0.373540000000     0.992600000000     0.521320000000    -0.435606   
O32      O      0.112540000000     0.521320000000     0.992600000000    -0.435604   
O33      O      0.992600000000     0.112540000000     0.521320000000    -0.435611   
O34      O      0.521320000000     0.373540000000     0.992600000000    -0.435605   
O35      O      0.373540000000     0.521320000000     0.112540000000    -0.435604   
O36      O      0.112540000000     0.992600000000     0.373540000000    -0.435601   
O37      O      0.478680000000     0.007400000000     0.626460000000    -0.435608   
O38      O      0.007400000000     0.478680000000     0.887460000000    -0.435617   
O39      O      0.887460000000     0.626460000000     0.007400000000    -0.435603   
O40      O      0.626460000000     0.887460000000     0.478680000000    -0.435604   
O41      O      0.626460000000     0.007400000000     0.887460000000    -0.435605   
O42      O      0.887460000000     0.478680000000     0.626460000000    -0.435605   
O43      O      0.007400000000     0.626460000000     0.478680000000    -0.435616   
O44      O      0.478680000000     0.887460000000     0.007400000000    -0.435604   
O45      O      0.887460000000     0.007400000000     0.478680000000    -0.435602   
O46      O      0.626460000000     0.478680000000     0.007400000000    -0.435605   
O47      O      0.478680000000     0.626460000000     0.887460000000    -0.435604   
O48      O      0.007400000000     0.887460000000     0.626460000000    -0.43561    


