data_[CoreMOF]XADDEN_manual

_audit_creation_method RASPA-1.0
_audit_creation_date 2025-1-26
_audit_author_name ''

_cell_length_a    18.651
_cell_length_b    18.651
_cell_length_c    18.651
_cell_angle_alpha 60
_cell_angle_beta  60
_cell_angle_gamma 60
_cell_volume      4587.66

_symmetry_cell_setting          triclinic
_symmetry_space_group_name_Hall 'P 1'
_symmetry_space_group_name_H-M  'P 1'
_symmetry_Int_Tables_number     1

_symmetry_equiv_pos_as_xyz 'x,y,z'

loop_
_atom_site_label
_atom_site_type_symbol
_atom_site_fract_x
_atom_site_fract_y
_atom_site_fract_z
_atom_site_charge
Cu1      Cu     0.069860000000     0.500000000000     0.500000000000    -0.163802   
Cu2      Cu     0.500000000000     0.069860000000     0.930140000000     0.421282   
Cu3      Cu     0.500000000000     0.930140000000     0.069860000000    -0.163801   
Cu4      Cu     0.930140000000     0.500000000000     0.500000000000     0.421289   
Cu5      Cu     0.069860000000     0.500000000000     0.930140000000    -0.163797   
Cu6      Cu     0.500000000000     0.930140000000     0.500000000000     0.421287   
Cu7      Cu     0.500000000000     0.069860000000     0.500000000000    -0.163799   
Cu8      Cu     0.930140000000     0.500000000000     0.069860000000     0.421286   
Cu9      Cu     0.069860000000     0.930140000000     0.500000000000    -0.163802   
Cu10     Cu     0.500000000000     0.500000000000     0.069860000000     0.421275   
Cu11     Cu     0.500000000000     0.500000000000     0.930140000000    -0.163801   
Cu12     Cu     0.930140000000     0.069860000000     0.500000000000     0.421289   
H1       H      0.772600000000     0.467400000000     0.772600000000    -0.163796   
H2       H      0.467400000000     0.772600000000     0.987400000000     0.421289   
H3       H      0.772600000000     0.987400000000     0.772600000000    -0.163799   
H4       H      0.987400000000     0.772600000000     0.467400000000     0.421274   
H5       H      0.772600000000     0.772600000000     0.987400000000    -0.1638     
H6       H      0.467400000000     0.987400000000     0.772600000000     0.421289   
H7       H      0.772600000000     0.772600000000     0.467400000000    -0.163797   
H8       H      0.987400000000     0.467400000000     0.772600000000     0.421286   
H9       H      0.772600000000     0.987400000000     0.467400000000    -0.163802   
H10      H      0.467400000000     0.772600000000     0.772600000000     0.421282   
H11      H      0.772600000000     0.467400000000     0.987400000000    -0.163801   
H12      H      0.987400000000     0.772600000000     0.772600000000     0.421287   
H13      H      0.532600000000     0.227400000000     0.227400000000    -0.163799   
H14      H      0.227400000000     0.532600000000     0.012600000000     0.421284   
H15      H      0.012600000000     0.227400000000     0.227400000000    -0.163798   
H16      H      0.227400000000     0.012600000000     0.532600000000     0.421289   
H17      H      0.227400000000     0.227400000000     0.012600000000    -0.163803   
H18      H      0.012600000000     0.532600000000     0.227400000000     0.421286   
H19      H      0.227400000000     0.227400000000     0.532600000000    -0.163802   
H20      H      0.532600000000     0.012600000000     0.227400000000     0.421288   
H21      H      0.012600000000     0.227400000000     0.532600000000    -0.163797   
H22      H      0.227400000000     0.532600000000     0.227400000000     0.421275   
H23      H      0.532600000000     0.227400000000     0.012600000000    -0.163801   
H24      H      0.227400000000     0.012600000000     0.227400000000     0.421289   
C1       C      0.930900000000     0.474260000000     0.663940000000    -0.163799   
C2       C      0.887400000000     0.467120000000     0.758080000000     0.421289   
C3       C      0.474260000000     0.930900000000     0.930900000000    -0.163796   
C4       C      0.467120000000     0.887400000000     0.887400000000     0.421274   
C5       C      0.663940000000     0.930900000000     0.930900000000    -0.1638     
C6       C      0.758080000000     0.887400000000     0.887400000000     0.104103   
C7       C      0.930900000000     0.663940000000     0.474260000000     0.104101   
C8       C      0.887400000000     0.758080000000     0.467120000000     0.1041     
C9       C      0.930900000000     0.663940000000     0.930900000000     0.104102   
C10      C      0.887400000000     0.758080000000     0.887400000000     0.104101   
C11      C      0.474260000000     0.930900000000     0.663940000000     0.104101   
C12      C      0.467120000000     0.887400000000     0.758080000000     0.104102   
C13      C      0.663940000000     0.930900000000     0.474260000000     0.104104   
C14      C      0.758080000000     0.887400000000     0.467120000000     0.104101   
C15      C      0.930900000000     0.474260000000     0.930900000000     0.104101   
C16      C      0.887400000000     0.467120000000     0.887400000000     0.104103   
C17      C      0.930900000000     0.930900000000     0.474260000000     0.104101   
C18      C      0.887400000000     0.887400000000     0.467120000000     0.104101   
C19      C      0.474260000000     0.663940000000     0.930900000000     0.104103   
C20      C      0.467120000000     0.758080000000     0.887400000000     0.104101   
C21      C      0.663940000000     0.474260000000     0.930900000000     0.104101   
C22      C      0.758080000000     0.467120000000     0.887400000000     0.104101   
C23      C      0.930900000000     0.930900000000     0.663940000000     0.104104   
C24      C      0.887400000000     0.887400000000     0.758080000000     0.104102   
C25      C      0.525740000000     0.069100000000     0.336060000000     0.104101   
C26      C      0.532880000000     0.112600000000     0.241920000000     0.104102   
C27      C      0.069100000000     0.525740000000     0.069100000000     0.104103   
C28      C      0.112600000000     0.532880000000     0.112600000000     0.104101   
C29      C      0.069100000000     0.336060000000     0.069100000000     0.1041     
C30      C      0.112600000000     0.241920000000     0.112600000000    -0.435618   
C31      C      0.336060000000     0.069100000000     0.525740000000    -0.435607   
C32      C      0.241920000000     0.112600000000     0.532880000000    -0.435603   
C33      C      0.336060000000     0.069100000000     0.069100000000    -0.435605   
C34      C      0.241920000000     0.112600000000     0.112600000000    -0.435614   
C35      C      0.069100000000     0.525740000000     0.336060000000    -0.435604   
C36      C      0.112600000000     0.532880000000     0.241920000000    -0.435606   
C37      C      0.069100000000     0.336060000000     0.525740000000    -0.435604   
C38      C      0.112600000000     0.241920000000     0.532880000000    -0.435611   
C39      C      0.525740000000     0.069100000000     0.069100000000    -0.435605   
C40      C      0.532880000000     0.112600000000     0.112600000000    -0.435604   
C41      C      0.069100000000     0.069100000000     0.525740000000    -0.435601   
C42      C      0.112600000000     0.112600000000     0.532880000000    -0.435608   
C43      C      0.336060000000     0.525740000000     0.069100000000    -0.435617   
C44      C      0.241920000000     0.532880000000     0.112600000000    -0.435603   
C45      C      0.525740000000     0.336060000000     0.069100000000    -0.435604   
C46      C      0.532880000000     0.241920000000     0.112600000000    -0.435605   
C47      C      0.069100000000     0.069100000000     0.336060000000    -0.435605   
C48      C      0.112600000000     0.112600000000     0.241920000000    -0.435616   
C49      C      0.801500000000     0.467220000000     0.801500000000    -0.435604   
C50      C      0.467220000000     0.801500000000     0.929780000000    -0.435602   
C51      C      0.801500000000     0.929780000000     0.801500000000    -0.435605   
C52      C      0.929780000000     0.801500000000     0.467220000000    -0.435604   
C53      C      0.801500000000     0.801500000000     0.929780000000    -0.43561    
C54      C      0.467220000000     0.929780000000     0.801500000000    -0.435618   
C55      C      0.801500000000     0.801500000000     0.467220000000    -0.435607   
C56      C      0.929780000000     0.467220000000     0.801500000000    -0.435603   
C57      C      0.801500000000     0.929780000000     0.467220000000    -0.435605   
C58      C      0.467220000000     0.801500000000     0.801500000000    -0.435614   
C59      C      0.801500000000     0.467220000000     0.929780000000    -0.435604   
C60      C      0.929780000000     0.801500000000     0.801500000000    -0.435606   
C61      C      0.532780000000     0.198500000000     0.198500000000    -0.435604   
C62      C      0.198500000000     0.532780000000     0.070220000000    -0.435611   
C63      C      0.070220000000     0.198500000000     0.198500000000    -0.435605   
C64      C      0.198500000000     0.070220000000     0.532780000000    -0.435604   
C65      C      0.198500000000     0.198500000000     0.070220000000    -0.435601   
C66      C      0.070220000000     0.532780000000     0.198500000000    -0.435608   
C67      C      0.198500000000     0.198500000000     0.532780000000    -0.435617   
C68      C      0.532780000000     0.070220000000     0.198500000000    -0.435603   
C69      C      0.070220000000     0.198500000000     0.532780000000    -0.435604   
C70      C      0.198500000000     0.532780000000     0.198500000000    -0.435605   
C71      C      0.532780000000     0.198500000000     0.070220000000    -0.435605   
C72      C      0.198500000000     0.070220000000     0.198500000000    -0.435616   
O1       O      0.007400000000     0.478680000000     0.626460000000    -0.435604   
O2       O      0.478680000000     0.007400000000     0.887460000000    -0.435602   
O3       O      0.626460000000     0.887460000000     0.007400000000    -0.435605   
O4       O      0.887460000000     0.626460000000     0.478680000000    -0.435604   
O5       O      0.007400000000     0.626460000000     0.887460000000    -0.43561    
O6       O      0.478680000000     0.887460000000     0.626460000000     0          
O7       O      0.626460000000     0.007400000000     0.478680000000     0          
O8       O      0.887460000000     0.478680000000     0.007400000000     0          
O9       O      0.007400000000     0.887460000000     0.478680000000     0          
O10      O      0.478680000000     0.626460000000     0.007400000000     0          
O11      O      0.626460000000     0.478680000000     0.887460000000     0          
O12      O      0.887460000000     0.007400000000     0.626460000000     0          
O13      O      0.521320000000     0.992600000000     0.373540000000     0          
O14      O      0.992600000000     0.521320000000     0.112540000000     0          
O15      O      0.112540000000     0.373540000000     0.992600000000     0          
O16      O      0.373540000000     0.112540000000     0.521320000000     0          
O17      O      0.373540000000     0.992600000000     0.112540000000     0          
O18      O      0.112540000000     0.521320000000     0.373540000000     0          
O19      O      0.992600000000     0.373540000000     0.521320000000     0          
O20      O      0.521320000000     0.112540000000     0.992600000000     0          
O21      O      0.112540000000     0.992600000000     0.521320000000     0          
O22      O      0.373540000000     0.521320000000     0.992600000000     0          
O23      O      0.521320000000     0.373540000000     0.112540000000     0          
O24      O      0.992600000000     0.112540000000     0.373540000000     0          
O25      O      0.992600000000     0.521320000000     0.373540000000     0          
O26      O      0.521320000000     0.992600000000     0.112540000000     0          
O27      O      0.373540000000     0.112540000000     0.992600000000     0          
O28      O      0.112540000000     0.373540000000     0.521320000000     0          
O29      O      0.992600000000     0.373540000000     0.112540000000     0          
O30      O      0.521320000000     0.112540000000     0.373540000000     0          
O31      O      0.373540000000     0.992600000000     0.521320000000     0          
O32      O      0.112540000000     0.521320000000     0.992600000000     0          
O33      O      0.992600000000     0.112540000000     0.521320000000     0          
O34      O      0.521320000000     0.373540000000     0.992600000000     0          
O35      O      0.373540000000     0.521320000000     0.112540000000     0          
O36      O      0.112540000000     0.992600000000     0.373540000000     0          
O37      O      0.478680000000     0.007400000000     0.626460000000     0          
O38      O      0.007400000000     0.478680000000     0.887460000000     0          
O39      O      0.887460000000     0.626460000000     0.007400000000     0          
O40      O      0.626460000000     0.887460000000     0.478680000000     0          
O41      O      0.626460000000     0.007400000000     0.887460000000     0          
O42      O      0.887460000000     0.478680000000     0.626460000000     0          
O43      O      0.007400000000     0.626460000000     0.478680000000     0          
O44      O      0.478680000000     0.887460000000     0.007400000000     0          
O45      O      0.887460000000     0.007400000000     0.478680000000     0          
O46      O      0.626460000000     0.478680000000     0.007400000000     0          
O47      O      0.478680000000     0.626460000000     0.887460000000     0          
O48      O      0.007400000000     0.887460000000     0.626460000000     0          


